@<TRIPOS>MOLECULE
ACE
    8     7     1     0     0
SMALL
bcc


@<TRIPOS>ATOM
      1 C          -3.9150   -0.4930    0.0000 c3        1 ACE     -0.200100
      2 C1         -2.7230    0.4150    0.0490 c         1 ACE      0.623100
      3 H          -4.8240    0.1060   -0.0980 hc        1 ACE      0.086700
      4 H1         -3.9740   -1.0750    0.9240 hc        1 ACE      0.068700
      5 H2         -3.8440   -1.1540   -0.8680 hc        1 ACE      0.068700
      6 O          -2.7880    1.6330    0.0830 o         1 ACE     -0.485000
      7 O1         -1.5520   -0.2590    0.0650 oh        1 ACE     -0.584100
      8 H3         -1.6580   -1.2280    0.0390 ho        1 ACE      0.422000
@<TRIPOS>BOND
     1    1    2 1   
     2    1    3 1   
     3    1    4 1   
     4    1    5 1   
     5    6    2 2   
     6    2    7 1   
     7    7    8 1   
@<TRIPOS>SUBSTRUCTURE
     1 ACE         1 TEMP              0 ****  ****    0 ROOT
