@<TRIPOS>MOLECULE
KTN
   64    68     1     0     0
SMALL
bcc


@<TRIPOS>ATOM
      1 N         -10.0180    9.2440   12.5580 na        1 KTN     -0.203900
      2 C          -9.9880   10.3420   11.7910 cc        1 KTN      0.395400
      3 N1         -8.9190   10.4050   11.0950 nd        1 KTN     -0.672000
      4 C1         -8.2310    9.2860   11.4360 cd        1 KTN      0.283200
      5 C2         -8.8840    8.5540   12.3370 cc        1 KTN     -0.244600
      6 C3        -11.0530    8.9480   13.4330 c3        1 KTN      0.039300
      7 C4        -11.0420   10.1450   14.2860 c3        1 KTN      0.383900
      8 O         -11.7490   11.2480   13.8660 os        1 KTN     -0.437600
      9 C5        -11.5560   12.3200   14.9600 c3        1 KTN      0.089100
     10 C6        -10.8740   11.5530   16.1330 c3        1 KTN      0.116400
     11 O1        -10.5020   10.3140   15.5500 os        1 KTN     -0.417600
     12 C7        -12.2390    9.3290   14.9650 ca        1 KTN     -0.121300
     13 C8        -12.0930    8.0860   15.6920 ca        1 KTN      0.051400
     14 C9        -13.1780    7.4240   16.2640 ca        1 KTN     -0.132000
     15 C10       -14.4460    7.9810   16.1390 ca        1 KTN      0.034400
     16 C11       -14.6440    9.1640   15.4490 ca        1 KTN     -0.132000
     17 C12       -13.5640    9.8130   14.8840 ca        1 KTN     -0.093000
     18 CL        -15.8140    7.1740   16.8540 cl        1 KTN     -0.077400
     19 C13       -12.9870   12.7680   15.1450 c3        1 KTN      0.114400
     20 O2        -13.4170   12.6590   13.7890 os        1 KTN     -0.335900
     21 C14       -14.7550   12.8020   13.4840 ca        1 KTN      0.055100
     22 C15       -15.7290   12.9940   14.4270 ca        1 KTN     -0.125000
     23 C16       -17.0480   13.0420   13.9680 ca        1 KTN     -0.163000
     24 C17       -17.2850   12.8760   12.6230 ca        1 KTN      0.127600
     25 C18       -16.2190   12.7280   11.7680 ca        1 KTN     -0.145000
     26 C19       -14.9170   12.6640   12.1980 ca        1 KTN     -0.113000
     27 N2        -18.6210   12.9090   12.1780 nh        1 KTN     -0.629000
     28 C20       -19.4610   13.9090   12.8100 c3        1 KTN      0.166800
     29 C21       -20.8860   13.6960   12.4410 c3        1 KTN      0.082000
     30 N3        -21.3860   12.5090   13.1100 n         1 KTN     -0.481800
     31 C22       -20.3490   11.4760   13.3280 c3        1 KTN      0.063000
     32 C23       -19.2860   11.5670   12.2520 c3        1 KTN      0.169800
     33 C24       -22.6440   12.3120   13.4810 c         1 KTN      0.660100
     34 O3        -22.9800   11.2740   14.0020 o         1 KTN     -0.605100
     35 C25       -23.6270   13.4070   13.2370 c3        1 KTN     -0.168100
     36 Cl1       -10.5450    7.2820   15.9310 cl        1 KTN     -0.068400
     37 H         -10.7380   11.0510   11.7660 h5        1 KTN      0.065100
     38 H1         -7.3110    9.0320   11.0440 h4        1 KTN      0.040100
     39 H2         -8.5890    7.6630   12.7660 h4        1 KTN      0.179000
     40 H3        -10.8590    8.0580   13.9930 h1        1 KTN      0.087700
     41 H4        -11.9910    8.7520   12.9580 h1        1 KTN      0.076700
     42 H5        -10.9420   13.1810   14.7990 h1        1 KTN      0.095700
     43 H6        -11.5500   11.4110   16.9500 h1        1 KTN      0.064700
     44 H7        -10.0410   12.0830   16.5450 h1        1 KTN      0.076700
     45 H8        -13.0430    6.5360   16.7720 ha        1 KTN      0.165000
     46 H9        -15.5930    9.5590   15.3570 ha        1 KTN      0.155000
     47 H10       -13.7330   10.6960   14.3770 ha        1 KTN      0.160000
     48 H11       -13.5340   12.1210   15.7980 h1        1 KTN      0.058700
     49 H12       -13.1190   13.7280   15.5990 h1        1 KTN      0.076700
     50 H13       -15.5000   13.0980   15.4280 ha        1 KTN      0.141000
     51 H14       -17.8290   13.1990   14.6250 ha        1 KTN      0.138000
     52 H15       -16.4060   12.6620   10.7550 ha        1 KTN      0.142000
     53 H16       -14.1260   12.5180   11.5520 ha        1 KTN      0.146000
     54 H17       -19.1480   14.8900   12.5180 h1        1 KTN      0.057700
     55 H18       -19.3650   13.8160   13.8720 h1        1 KTN      0.051700
     56 H19       -20.9830   13.5920   11.3800 h1        1 KTN      0.046700
     57 H20       -21.4610   14.5440   12.7510 h1        1 KTN      0.057700
     58 H21       -19.9060   11.5970   14.2940 h1        1 KTN      0.061700
     59 H22       -20.8080   10.5110   13.2770 h1        1 KTN      0.056700
     60 H23       -18.5470   10.8100   12.4140 h1        1 KTN      0.070700
     61 H24       -19.7840   11.4200   11.3160 h1        1 KTN      0.060700
     62 H25       -23.1330   14.2330   12.7700 hc        1 KTN      0.059700
     63 H26       -24.0740   13.7150   14.1590 hc        1 KTN      0.060700
     64 H27       -24.4000   13.0480   12.5900 hc        1 KTN      0.079700
@<TRIPOS>BOND
     1    1    2 ar  
     2    1    5 ar  
     3    1    6 1   
     4    2    3 ar  
     5    2   37 1   
     6    3    4 ar  
     7    4    5 ar  
     8    4   38 1   
     9    5   39 1   
    10    6    7 1   
    11    6   40 1   
    12    6   41 1   
    13    7    8 1   
    14    7   11 1   
    15    7   12 1   
    16    8    9 1   
    17    9   10 1   
    18    9   19 1   
    19    9   42 1   
    20   10   11 1   
    21   10   43 1   
    22   10   44 1   
    23   12   13 ar  
    24   12   17 ar  
    25   13   14 ar  
    26   13   36 1   
    27   14   15 ar  
    28   14   45 1   
    29   15   16 ar  
    30   15   18 1   
    31   16   17 ar  
    32   16   46 1   
    33   17   47 1   
    34   19   20 1   
    35   19   48 1   
    36   19   49 1   
    37   20   21 1   
    38   21   22 ar  
    39   21   26 ar  
    40   22   23 ar  
    41   22   50 1   
    42   23   24 ar  
    43   23   51 1   
    44   24   25 ar  
    45   24   27 1   
    46   25   26 ar  
    47   25   52 1   
    48   26   53 1   
    49   27   28 1   
    50   27   32 1   
    51   28   29 1   
    52   28   54 1   
    53   28   55 1   
    54   29   30 1   
    55   29   56 1   
    56   29   57 1   
    57   30   31 1   
    58   30   33 1   
    59   31   32 1   
    60   31   58 1   
    61   31   59 1   
    62   32   60 1   
    63   32   61 1   
    64   33   34 2   
    65   33   35 1   
    66   35   62 1   
    67   35   63 1   
    68   35   64 1   
@<TRIPOS>SUBSTRUCTURE
     1 KTN         1 TEMP              0 ****  ****    0 ROOT
